
 Fire Dynamics Simulator

 Current Date     : January 11, 2019  19:45:47
 Revision         : FDS6.7.0-0-g5ccea76-master
 Revision Date    : Mon Jun 25 13:03:23 2018 -0400
 Compiler         : Intel ifort 18.0.2.185
 Compilation Date : Tue 06/26/2018  10:49 AM

 MPI Enabled;    Number of MPI Processes:       1
 OpenMP Enabled; Number of OpenMP Threads:      4

 MPI version: 3.1
 MPI library version: Intel(R) MPI Library 2018 Update 2 for Windows* OS


 Job TITLE        : Test geometry for verify that a sprinker is beneath the ceiling
 Job ID string    : sprinkler-beneath-open-mesh-boundary


 Grid Dimensions, Mesh     1

   Cells in the X Direction            10
   Cells in the Y Direction            10
   Cells in the Z Direction            10


 Physical Dimensions, Mesh     1

   Length (m)                       1.000
   Width  (m)                       1.000
   Height (m)                       1.000
   Initial Time Step (s)            0.158


 Miscellaneous Parameters

   Simulation Start Time (s)          0.0
   Simulation End Time (s)            1.0
   LES Calculation
   Eddy Viscosity:           Deardorff Model (C_DEARDORFF)                          0.10
   Near-wall Eddy Viscosity: Smagorinsky with Van Driest damping (C_SMAGORINSKY)    0.20
   Turbulent Prandtl Number          0.50
   Turbulent Schmidt Number          0.50
   Ambient Temperature (C)          20.00


 Mass Fraction Transformation Matrix to Convert Species Mixtures (Columns) to Primitive Species (Rows)

                         AIR       REAC_FUE  PRODUCTS  WATER VA
   REAC_FUEL             0.000000  1.000000  0.000000  0.000000
   NITROGEN              0.763077  0.000000  0.671476  0.000000
   OXYGEN                0.231181  0.000000  0.000000  0.000000
   CARBON DIOXIDE        0.000592  0.000000  0.235791  0.000000
   CARBON MONOXIDE       0.000000  0.000000  0.006985  0.000000
   WATER VAPOR           0.005149  0.000000  0.071778  1.000000
   SOOT                  0.000000  0.000000  0.013970  0.000000
   HYDROGEN              0.000000  0.000000  0.000000  0.000000


 Primitive Species Information

   REAC_FUEL
   Gas Species
   Molecular Weight (g/mol)           130.42922
   Ambient Density (kg/m^3)            5.422
   Enthalpy of Formation (J/kg)       -3.08E+06

   NITROGEN
   Gas Species
   Molecular Weight (g/mol)            28.01340
   Ambient Density (kg/m^3)            1.165
   Enthalpy of Formation (J/kg)        0.00E+00

   OXYGEN
   Gas Species
   Molecular Weight (g/mol)            31.99880
   Ambient Density (kg/m^3)            1.330
   Enthalpy of Formation (J/kg)        0.00E+00

   CARBON DIOXIDE
   Gas Species
   Molecular Weight (g/mol)            44.00950
   Ambient Density (kg/m^3)            1.830
   Enthalpy of Formation (J/kg)       -8.94E+06

   CARBON MONOXIDE
   Gas Species
   Molecular Weight (g/mol)            28.01010
   Ambient Density (kg/m^3)            1.164
   Enthalpy of Formation (J/kg)       -3.95E+06

   WATER VAPOR
   Gas Species
   Molecular Weight (g/mol)            18.01528
   Ambient Density (kg/m^3)            0.749
   Enthalpy of Formation (J/kg)       -1.34E+07

   SOOT
   Gas Species
   Molecular Weight (g/mol)            10.91042
   Ambient Density (kg/m^3)            0.454
   Enthalpy of Formation (J/kg)        0.00E+00

   HYDROGEN
   Gas Species
   Molecular Weight (g/mol)             2.01588
   Ambient Density (kg/m^3)            0.084
   Enthalpy of Formation (J/kg)        0.00E+00


 Tracked (Lumped) Species Information

   AIR
   Molecular Weight (g/mol)            28.76564
   Ambient Density (kg/m^3)            1.196
   Initial Mass Fraction               1.000
   Enthalpy of Formation (J/kg)     -7.44E+04

   Sub Species                    Mass Fraction     Mole Fraction
   NITROGEN                       7.630774E-01      7.835682E-01
   OXYGEN                         2.311814E-01      2.078229E-01
   CARBON DIOXIDE                 5.919362E-04      3.869034E-04
   WATER VAPOR                    5.149269E-03      8.222023E-03
 
     Viscosity (kg/m/s) Ambient,  293 K:  1.80E-05
                                  500 K:  2.61E-05
                                 1000 K:  4.13E-05
                                 1500 K:  5.37E-05
   Therm. Cond. (W/m/K) Ambient,  293 K:  2.56E-02
                                  500 K:  3.81E-02
                                 1000 K:  6.68E-02
                                 1500 K:  9.24E-02
        Enthalpy (J/kg) Ambient,  293 K: -7.97E+04
                                  500 K:  1.33E+05
                                 1000 K:  6.82E+05
                                 1500 K:  1.28E+06
    Spec. Heat (J/kg/K) Ambient,  293 K:  1.02E+03
                                  500 K:  1.04E+03
                                 1000 K:  1.16E+03
                                 1500 K:  1.23E+03
   Diff. Coeff. (m^2/s) Ambient,  293 K:  1.99E-05
                                  500 K:  4.96E-05
                                 1000 K:  1.58E-04
                                 1500 K:  3.09E-04

   REAC_FUEL
   Molecular Weight (g/mol)           130.42922
   Ambient Density (kg/m^3)            5.422
   Initial Mass Fraction               0.000
   Enthalpy of Formation (J/kg)     -3.08E+06

   Sub Species                    Mass Fraction     Mole Fraction
   REAC_FUEL                      1.000000E+00      1.000000E+00
 
     Viscosity (kg/m/s) Ambient,  293 K:  3.75E-05
                                  500 K:  5.42E-05
                                 1000 K:  8.52E-05
                                 1500 K:  1.11E-04
   Therm. Cond. (W/m/K) Ambient,  293 K:  1.18E-02
                                  500 K:  1.70E-02
                                 1000 K:  2.68E-02
                                 1500 K:  3.48E-02
        Enthalpy (J/kg) Ambient,  293 K: -3.08E+06
                                  500 K: -3.03E+06
                                 1000 K: -2.92E+06
                                 1500 K: -2.81E+06
    Spec. Heat (J/kg/K) Ambient,  293 K:  2.23E+02
                                  500 K:  2.23E+02
                                 1000 K:  2.23E+02
                                 1500 K:  2.23E+02
   Diff. Coeff. (m^2/s) Ambient,  293 K:  1.55E-05
                                  500 K:  3.85E-05
                                 1000 K:  1.22E-04
                                 1500 K:  2.39E-04

   PRODUCTS
   Molecular Weight (g/mol)            28.70128
   Ambient Density (kg/m^3)            1.193
   Initial Mass Fraction               0.000
   Enthalpy of Formation (J/kg)     -3.10E+06

   Sub Species                    Mass Fraction     Mole Fraction
   NITROGEN                       6.714758E-01      6.879642E-01
   CARBON DIOXIDE                 2.357907E-01      1.537735E-01
   CARBON MONOXIDE                6.985148E-03      7.157515E-03
   WATER VAPOR                    7.177801E-02      1.143541E-01
   SOOT                           1.397030E-02      3.675067E-02
 
     Viscosity (kg/m/s) Ambient,  293 K:  1.61E-05
                                  500 K:  2.39E-05
                                 1000 K:  3.88E-05
                                 1500 K:  5.10E-05
   Therm. Cond. (W/m/K) Ambient,  293 K:  2.30E-02
                                  500 K:  3.60E-02
                                 1000 K:  6.69E-02
                                 1500 K:  9.53E-02
        Enthalpy (J/kg) Ambient,  293 K: -3.11E+06
                                  500 K: -2.88E+06
                                 1000 K: -2.28E+06
                                 1500 K: -1.62E+06
    Spec. Heat (J/kg/K) Ambient,  293 K:  1.05E+03
                                  500 K:  1.11E+03
                                 1000 K:  1.27E+03
                                 1500 K:  1.37E+03
   Diff. Coeff. (m^2/s) Ambient,  293 K:  1.95E-05
                                  500 K:  4.93E-05
                                 1000 K:  1.59E-04
                                 1500 K:  3.12E-04

   WATER VAPOR SPK
   Molecular Weight (g/mol)            18.01528
   Ambient Density (kg/m^3)            0.749
   Initial Mass Fraction               0.000
   Enthalpy of Formation (J/kg)     -1.34E+07

   Sub Species                    Mass Fraction     Mole Fraction
   WATER VAPOR                    1.000000E+00      1.000000E+00
 
     Viscosity (kg/m/s) Ambient,  293 K:  1.05E-05
                                  500 K:  1.77E-05
                                 1000 K:  3.58E-05
                                 1500 K:  5.21E-05
   Therm. Cond. (W/m/K) Ambient,  293 K:  1.96E-02
                                  500 K:  3.46E-02
                                 1000 K:  8.21E-02
                                 1500 K:  1.37E-01
        Enthalpy (J/kg) Ambient,  293 K: -1.34E+07
                                  500 K: -1.30E+07
                                 1000 K: -1.20E+07
                                 1500 K: -1.07E+07
    Spec. Heat (J/kg/K) Ambient,  293 K:  1.86E+03
                                  500 K:  1.96E+03
                                 1000 K:  2.29E+03
                                 1500 K:  2.63E+03
   Diff. Coeff. (m^2/s) Ambient,  293 K:  2.10E-05
                                  500 K:  5.78E-05
                                 1000 K:  1.98E-04
                                 1500 K:  3.95E-04
 
   Liq. Enthalpy (J/kg)     Melt  273 K: -1.60E+07
                                  323 K: -1.58E+07
                            Boil  373 K: -1.56E+07
 
   Liq. Spec. Heat (J/kg/K) Melt  273 K:  4.23E+03
                                  323 K:  4.18E+03
                            Boil  373 K:  4.22E+03
 
   Heat of Vapor. (J/kg)    Melt  273 K:  2.50E+06
                                  323 K:  2.39E+06
                            Boil  373 K:  2.27E+06


 Gas Phase Reaction Information

   Reaction ID:  POLYURETHANE

   Fuel                                           Heat of Combustion (kJ/kg)
   REAC_FUEL                                                      18649.4930

   Stoichiometry

   Primitive Species Stoich. Coeff.
   Species ID                                                          Molar
   REAC_FUEL                                                       -1.000000
   NITROGEN                                                         0.500000
   OXYGEN                                                          -5.802791
   CARBON DIOXIDE                                                   4.991265
   CARBON MONOXIDE                                                  0.232825
   WATER VAPOR                                                      3.490227
   SOOT                                                             1.195455

   Tracked (Lumped) Species Stoich. Coeff.
   Species ID                                             Molar         Mass
   AIR                                               -27.921815    -6.158044
   REAC_FUEL                                          -1.000000    -1.000000
   PRODUCTS                                           32.528797     7.158044

   Reaction Kinetics

   Arrhenius Parameters
   Pre-exponential:    Infinite
   Activation Energy:  N/A

   ODE Solver:  EXPLICIT EULER
   Extinction Model:  EXTINCTION 2
   Ignition Temperature (K):            0.0
   Critical Flame Temperature (K):   1700.2


 Material Information


 Surface Conditions

   0 INERT (DEFAULT)

   1 Ceiling

   2 OPEN
     Passive Vent to Atmosphere

   3 MIRROR
     Symmetry Plane

   4 INTERPOLATED

   5 PERIODIC

   6 HVAC

   7 MASSLESS TRACER

   8 DROPLET

   9 VEGETATION

  10 EVACUATION_OUTFLOW
     Normal Velocity (m/s)         0.000

  11 MASSLESS TARGET

  12 PERIODIC WIND


 Device Properties

   1 Smoke Detector
     Activation Obscuration (%/m)   12.00
     Alpha_c or L                    1.80
     Beta_c                         -1.00
     Alpha_e                         0.00
     Beta_e                         -1.00
     Smokeview ID                smoke_detector

   2 Sprinkler
     RTI (m-s)^1/2                   50.0
     C-Factor (m/s)^1/2              0.00
     Activation Temperature (C)      74.0
     Flow Rate (L/min)              70.00
     K-Factor (L/min/bar**0.5)      10.00
     Particle Class              Sprinkler Droplets
     Smokeview ID                sprinkler_pendent


 Device Coordinates

     1 Coords:     0.45     0.55     0.99, Make: Smoke Detector, ID: RightLobbyDetector, Quantity: CHAMBER OBSCURATION, Species: SOOT


 Radiation Model Information

   Number of control angles  104
   Time step increment         3
   Angle increment             5
   Theta band N_phi   Solid angle
     1:        4  0.12
     2:       12  0.11
     3:       16  0.13
     4:       20  0.12
     5:       20  0.12
     6:       16  0.13
     7:       12  0.11
     8:        4  0.12
   Using gray gas absorption.
   Mean beam length  0.100 m
 
 

 Run Time Diagnostics

       Time Step       1   January 11, 2019  19:45:47
       Step Size:    0.158E+00 s, Total Time:       0.16 s
       Pressure Iterations:      1
       Maximum Velocity Error:  0.15E-02 on Mesh   1 at (   5   6   6)
       Maximum Pressure Error:  0.11E-05 on Mesh   1 at (   5   5   6)
       ---------------------------------------------------------------
       Max CFL number:  0.26E-01 at (   3,   9,   6)
       Max divergence:  0.10E-05 at (   4,   2,   8)
       Min divergence: -0.10E-05 at (   6,   7,   4)
       Max VN number:   0.22E-01 at (   2,   7,   4)
 
       Time Step       2   January 11, 2019  19:45:47
       Step Size:    0.158E+00 s, Total Time:       0.32 s
       Pressure Iterations:      1
       Maximum Velocity Error:  0.12E-02 on Mesh   1 at (   5   6   6)
       Maximum Pressure Error:  0.48E-06 on Mesh   1 at (   6   6   6)
       ---------------------------------------------------------------
       Max CFL number:  0.26E-01 at (   3,   9,   6)
       Max divergence:  0.11E-05 at (   4,   2,   8)
       Min divergence: -0.10E-05 at (   6,   7,   4)
       Max VN number:   0.22E-01 at (   2,   7,   4)
 
       Time Step       3   January 11, 2019  19:45:47
       Step Size:    0.158E+00 s, Total Time:       0.47 s
       Pressure Iterations:      1
       Maximum Velocity Error:  0.50E-03 on Mesh   1 at (   5   6   6)
       Maximum Pressure Error:  0.53E-06 on Mesh   1 at (   5   7   6)
       ---------------------------------------------------------------
       Max CFL number:  0.26E-01 at (   3,   9,   6)
       Max divergence:  0.11E-05 at (   4,   2,   8)
       Min divergence: -0.10E-05 at (   6,   7,   4)
       Max VN number:   0.21E-01 at (   2,   7,   4)
 
       Time Step       4   January 11, 2019  19:45:47
       Step Size:    0.158E+00 s, Total Time:       0.63 s
       Pressure Iterations:      1
       Maximum Velocity Error:  0.46E-04 on Mesh   1 at (   6   6   6)
       Maximum Pressure Error:  0.20E-06 on Mesh   1 at (   5   7   6)
       ---------------------------------------------------------------
       Max CFL number:  0.26E-01 at (   3,   9,   6)
       Max divergence:  0.11E-05 at (   4,   2,   8)
       Min divergence: -0.10E-05 at (   6,   7,   4)
       Max VN number:   0.21E-01 at (   2,   7,   4)
 
       Time Step       5   January 11, 2019  19:45:47
       Step Size:    0.158E+00 s, Total Time:       0.79 s
       Pressure Iterations:      1
       Maximum Velocity Error:  0.97E-04 on Mesh   1 at (   5   6   6)
       Maximum Pressure Error:  0.48E-07 on Mesh   1 at (   3   2  10)
       ---------------------------------------------------------------
       Max CFL number:  0.26E-01 at (   3,   9,   6)
       Max divergence:  0.11E-05 at (   4,   2,   8)
       Min divergence: -0.10E-05 at (   6,   7,   4)
       Max VN number:   0.21E-01 at (   2,   7,   4)
 
       Time Step       6   January 11, 2019  19:45:47
       Step Size:    0.158E+00 s, Total Time:       0.95 s
       Pressure Iterations:      1
       Maximum Velocity Error:  0.24E-04 on Mesh   1 at (   5   6   6)
       Maximum Pressure Error:  0.62E-07 on Mesh   1 at (   5   6   6)
       ---------------------------------------------------------------
       Max CFL number:  0.26E-01 at (   3,   9,   6)
       Max divergence:  0.11E-05 at (   4,   2,   8)
       Min divergence: -0.10E-05 at (   6,   7,   4)
       Max VN number:   0.21E-01 at (   2,   7,   4)
 
       Time Step       7   January 11, 2019  19:45:47
       Step Size:    0.513E-01 s, Total Time:       1.00 s
       Pressure Iterations:      1
       Maximum Velocity Error:  0.86E-06 on Mesh   1 at (   5   6   6)
       Maximum Pressure Error:  0.48E-07 on Mesh   1 at (   3   2  10)
       ---------------------------------------------------------------
       Max CFL number:  0.84E-02 at (   3,   9,   6)
       Max divergence:  0.11E-05 at (   4,   2,   8)
       Min divergence: -0.10E-05 at (   6,   7,   4)
       Max VN number:   0.68E-02 at (   2,   7,   4)
 


 DEVICE Activation Times

   1  RightLobbyDetector                                          No Activation


 Time Stepping Wall Clock Time (s):        0.062
 Total Elapsed Wall Clock Time (s):        3.797

STOP: FDS completed successfully (CHID: sprinkler-beneath-open-mesh-boundary)
